Version 4
SHEET 1 888 680
WIRE 464 -240 240 -240
WIRE 464 -224 464 -240
WIRE 240 -128 240 -240
WIRE 240 -128 112 -128
WIRE 336 -128 240 -128
WIRE 112 -96 112 -128
WIRE 112 -96 80 -96
WIRE 336 -96 336 -128
WIRE 368 -96 336 -96
WIRE 464 -96 464 -144
WIRE 112 -64 112 -96
WIRE 336 -64 336 -96
WIRE 80 -16 80 -96
WIRE 112 -16 80 -16
WIRE 368 -16 368 -96
WIRE 368 -16 336 -16
WIRE 224 16 160 16
WIRE 288 16 224 16
WIRE 112 64 112 32
WIRE 224 64 224 16
WIRE 224 64 112 64
WIRE 336 80 336 32
WIRE 384 80 336 80
WIRE 496 80 448 80
WIRE 112 160 112 64
WIRE 336 160 336 80
WIRE 176 208 112 208
WIRE 336 208 288 208
WIRE 64 240 -80 240
WIRE 528 240 384 240
WIRE 528 256 528 240
WIRE -80 272 -80 240
WIRE 112 288 112 256
WIRE 224 288 112 288
WIRE 336 288 336 256
WIRE 336 288 224 288
WIRE 224 320 224 288
WIRE -80 384 -80 352
WIRE 528 384 528 336
WIRE 176 432 176 208
WIRE 224 432 224 400
WIRE 224 432 176 432
WIRE 288 432 288 208
WIRE 288 432 224 432
WIRE 224 496 224 432
FLAG 464 -96 0
FLAG 224 496 0
FLAG -80 384 0
FLAG 528 384 0
FLAG 496 80 Vout
IOPIN 496 80 Out
SYMBOL current 224 320 R0
WINDOW 123 0 0 Left 0
WINDOW 39 0 0 Left 0
SYMATTR InstName I1
SYMATTR Value 100µ
SYMBOL voltage 464 -240 R0
WINDOW 123 0 0 Left 0
WINDOW 39 0 0 Left 0
SYMATTR InstName V1
SYMATTR Value 1.8
SYMBOL voltage -80 256 R0
WINDOW 0 -173 44 Left 2
WINDOW 123 24 124 Left 2
WINDOW 39 0 0 Left 0
WINDOW 3 -277 11 Left 2
SYMATTR InstName Vin+
SYMATTR Value SINE(0.4533 1m 1000)
SYMBOL voltage 528 240 R0
WINDOW 3 18 -11 Left 2
WINDOW 123 49 52 Left 2
WINDOW 39 0 0 Left 0
SYMATTR Value SINE(0.4533 -1m 1000)
SYMATTR Value2 AC 1
SYMATTR InstName Vin-
SYMBOL cap 384 64 M90
WINDOW 0 0 32 VBottom 2
WINDOW 3 32 32 VTop 2
SYMATTR InstName C2
SYMATTR Value 10µ
SYMBOL nmos4 64 160 R0
WINDOW 3 -89 37 Left 2
SYMATTR InstName M1
SYMATTR Value2 l=1u w=176u
SYMBOL nmos4 384 160 M0
WINDOW 3 -87 31 Left 2
SYMATTR InstName M2
SYMATTR Value2 l=1u w=176u
SYMBOL pmos4 288 -64 R0
WINDOW 0 87 37 Left 2
WINDOW 3 79 70 Left 2
SYMATTR InstName M3
SYMATTR Value2 l=10u w=10u
SYMBOL pmos4 160 -64 M0
WINDOW 0 99 38 Left 2
WINDOW 3 91 72 Left 2
SYMATTR InstName M4
SYMATTR Value2 l=10u w=10u
TEXT -536 -192 Left 2 !.tran 0 100m 90m 1m
TEXT -536 -160 Left 2 !.MODEL nmos nmos(kp=200u,vto=0.4, lambda = 0.1)
TEXT -536 -128 Left 2 !.MODEL pmos pmos(kp=200u,vto=-0.4, lambda =0.05)
TEXT -536 -96 Left 2 !;.op
TEXT -538 -64 Left 2 !;.ac lin 1000 1 1Meg
